H05R2x
*SPICE Netlist generated by Advanced Sim server on 11/22/2025 8:04:33 PM
.options MixedSimGenerated

.PLOT {V(+5)} =PLOT(1) =AXIS(1)

*Selected Circuit Analyses:
.AC DEC 10 1K 1G
.TRAN 0.1u 5u 0 0.1u
.OP

.END